*****
  PyMOL2.5          3D                             0

 15 14  0  0  0  0  0  0  0  0999 V2000
    4.1929    5.2956    0.5446 C   0  0  0  0  0  0  0  0  0  0  0  0
    2.9128    5.6233   -0.1139 C   0  0  0  0  0  0  0  0  0  0  0  0
    4.3176    4.2967    1.2352 O   0  0  0  0  0  0  0  0  0  0  0  0
    2.5173    6.8111   -0.5978 C   0  0  0  0  0  0  0  0  0  0  0  0
    5.2035    6.1479    0.2959 O   0  0  0  0  0  0  0  0  0  0  0  0
    1.1632    7.0206   -1.2216 C   0  0  0  0  0  0  0  0  0  0  0  0
    1.2839    7.4826   -2.6643 C   0  0  0  0  0  0  0  0  0  0  0  0
    2.2363    4.7710   -0.1415 H   0  0  0  0  0  0  0  0  0  0  0  0
    3.1393    7.6951   -0.5267 H   0  0  0  0  0  0  0  0  0  0  0  0
    4.9963    6.8430   -0.3511 H   0  0  0  0  0  0  0  0  0  0  0  0
    0.6185    7.7746   -0.6399 H   0  0  0  0  0  0  0  0  0  0  0  0
    0.5667    6.1014   -1.1877 H   0  0  0  0  0  0  0  0  0  0  0  0
    1.8267    8.4315   -2.7328 H   0  0  0  0  0  0  0  0  0  0  0  0
    0.2903    7.6300   -3.0997 H   0  0  0  0  0  0  0  0  0  0  0  0
    1.8137    6.7416   -3.2727 H   0  0  0  0  0  0  0  0  0  0  0  0
  1  2  1  0  0  0  0
  2  8  1  0  0  0  0
  1  3  2  0  0  0  0
  2  4  2  0  0  0  0
  4  9  1  0  0  0  0
  1  5  1  0  0  0  0
  5 10  1  0  0  0  0
  4  6  1  0  0  0  0
  6 11  1  0  0  0  0
  6 12  1  0  0  0  0
  6  7  1  0  0  0  0
  7 13  1  0  0  0  0
  7 14  1  0  0  0  0
  7 15  1  0  0  0  0
M  END
$$$$
